# WEL package for  MODFLOW-2005, generated by Flopy.
         4         0 
         1         0 # stress period 1
         1         1         1             0.0
         4         0 # stress period 2
         7        34        22          -648.0
        11        19        19           648.0
        11        59        37          -480.0
        13        59        37           480.0
         4         0 # stress period 3
         7        34        22           744.0
        11        19        19          -744.0
        11        59        37           600.0
        13        59        37          -600.0
         4         0 # stress period 4
         7        34        22          -648.0
        11        19        19           648.0
        11        59        37          -480.0
        13        59        37           480.0
         4         0 # stress period 5
         7        34        22           744.0
        11        19        19          -744.0
        11        59        37           600.0
        13        59        37          -600.0
         4         0 # stress period 6
         7        34        22          -648.0
        11        19        19           648.0
        11        59        37          -480.0
        13        59        37           480.0
         4         0 # stress period 7
         7        34        22           744.0
        11        19        19          -744.0
        11        59        37           600.0
        13        59        37          -600.0
         4         0 # stress period 8
         7        34        22          -648.0
        11        19        19           648.0
        11        59        37          -480.0
        13        59        37           480.0
         4         0 # stress period 9
         7        34        22           744.0
        11        19        19          -744.0
        11        59        37           600.0
        13        59        37          -600.0
         4         0 # stress period 10
         7        34        22          -648.0
        11        19        19           648.0
        11        59        37          -480.0
        13        59        37           480.0
         4         0 # stress period 11
         7        34        22           744.0
        11        19        19          -744.0
        11        59        37           600.0
        13        59        37          -600.0
         4         0 # stress period 12
         7        34        22          -648.0
        11        19        19           648.0
        11        59        37          -480.0
        13        59        37           480.0
         4         0 # stress period 13
         7        34        22           744.0
        11        19        19          -744.0
        11        59        37           600.0
        13        59        37          -600.0
         4         0 # stress period 14
         7        34        22          -648.0
        11        19        19           648.0
        11        59        37          -480.0
        13        59        37           480.0
         4         0 # stress period 15
         7        34        22           744.0
        11        19        19          -744.0
        11        59        37           600.0
        13        59        37          -600.0
         4         0 # stress period 16
         7        34        22          -648.0
        11        19        19           648.0
        11        59        37          -480.0
        13        59        37           480.0
         4         0 # stress period 17
         7        34        22           744.0
        11        19        19          -744.0
        11        59        37           600.0
        13        59        37          -600.0
         4         0 # stress period 18
         7        34        22          -648.0
        11        19        19           648.0
        11        59        37          -480.0
        13        59        37           480.0
         4         0 # stress period 19
         7        34        22           744.0
        11        19        19          -744.0
        11        59        37           600.0
        13        59        37          -600.0
         4         0 # stress period 20
         7        34        22          -648.0
        11        19        19           648.0
        11        59        37          -480.0
        13        59        37           480.0
         4         0 # stress period 21
         7        34        22           744.0
        11        19        19          -744.0
        11        59        37           600.0
        13        59        37          -600.0
         4         0 # stress period 22
         7        34        22          -648.0
        11        19        19           648.0
        11        59        37          -480.0
        13        59        37           480.0
         4         0 # stress period 23
         7        34        22           744.0
        11        19        19          -744.0
        11        59        37           600.0
        13        59        37          -600.0
         4         0 # stress period 24
         7        34        22          -648.0
        11        19        19           648.0
        11        59        37          -480.0
        13        59        37           480.0
         4         0 # stress period 25
         7        34        22           744.0
        11        19        19          -744.0
        11        59        37           600.0
        13        59        37          -600.0
         4         0 # stress period 26
         7        34        22          -648.0
        11        19        19           648.0
        11        59        37          -480.0
        13        59        37           480.0
         4         0 # stress period 27
         7        34        22           744.0
        11        19        19          -744.0
        11        59        37           600.0
        13        59        37          -600.0
         4         0 # stress period 28
         7        34        22          -648.0
        11        19        19           648.0
        11        59        37          -480.0
        13        59        37           480.0
         4         0 # stress period 29
         7        34        22           744.0
        11        19        19          -744.0
        11        59        37           600.0
        13        59        37          -600.0
         4         0 # stress period 30
         7        34        22          -648.0
        11        19        19           648.0
        11        59        37          -480.0
        13        59        37           480.0
         4         0 # stress period 31
         7        34        22           744.0
        11        19        19          -744.0
        11        59        37           600.0
        13        59        37          -600.0
         4         0 # stress period 32
         7        34        22          -648.0
        11        19        19           648.0
        11        59        37          -480.0
        13        59        37           480.0
         4         0 # stress period 33
         7        34        22           744.0
        11        19        19          -744.0
        11        59        37           600.0
        13        59        37          -600.0
         4         0 # stress period 34
         7        34        22          -648.0
        11        19        19           648.0
        11        59        37          -480.0
        13        59        37           480.0
         4         0 # stress period 35
         7        34        22           744.0
        11        19        19          -744.0
        11        59        37           600.0
        13        59        37          -600.0
         4         0 # stress period 36
         7        34        22          -648.0
        11        19        19           648.0
        11        59        37          -480.0
        13        59        37           480.0
         4         0 # stress period 37
         7        34        22           744.0
        11        19        19          -744.0
        11        59        37           600.0
        13        59        37          -600.0
         4         0 # stress period 38
         7        34        22          -648.0
        11        19        19           648.0
        11        59        37          -480.0
        13        59        37           480.0
         4         0 # stress period 39
         7        34        22           744.0
        11        19        19          -744.0
        11        59        37           600.0
        13        59        37          -600.0
         4         0 # stress period 40
         7        34        22          -648.0
        11        19        19           648.0
        11        59        37          -480.0
        13        59        37           480.0
         4         0 # stress period 41
         7        34        22           744.0
        11        19        19          -744.0
        11        59        37           600.0
        13        59        37          -600.0
