# Name file for MODFLOW-2005, generated by Flopy version 3.3.2.
#xll:91435.0; yll:461659.0; rotation:0.0; proj4_str:epsg:28992; units:meters; lenuni:2; start_datetime:1-1-1970
LIST               2  leo_01.list
DIS               11  leo_01.dis
OC                14  leo_01.oc
BAS6              13  leo_01.bas
LPF               15  leo_01.lpf
WEL               20  leo_01.wel
PCG               27  leo_01.pcg
DATA(BINARY)      51  leo_01.hds REPLACE
DATA(BINARY)      53  leo_01.cbc REPLACE
