# DIS package for  MODFLOW-2005, generated by Flopy.
        19        83        61        41         4         2
  0  0  0  0  0  0  0  0  0  0  0  0  0  0  0  0  0  0  0
INTERNAL               1  (61E15.6) -1 #delr                          
   1.000000E+02   1.000000E+02   1.000000E+02   1.000000E+02   1.000000E+02   1.000000E+02   1.000000E+02   1.000000E+02   1.000000E+02   1.000000E+01   1.000000E+01   1.000000E+01   1.000000E+01   1.000000E+01   1.000000E+01   1.000000E+01   1.000000E+01   1.000000E+01   1.000000E+01   1.000000E+01   1.000000E+01   1.000000E+01   1.000000E+01   1.000000E+01   1.000000E+01   1.000000E+01   1.000000E+01   1.000000E+01   1.000000E+01   1.000000E+01   1.000000E+01   1.000000E+01   1.000000E+01   1.000000E+01   1.000000E+01   1.000000E+01   1.000000E+01   1.000000E+01   1.000000E+01   1.000000E+01   1.000000E+01   1.000000E+01   1.000000E+01   1.000000E+01   1.000000E+01   1.000000E+01   1.000000E+01   1.000000E+01   1.000000E+01   1.000000E+01   1.000000E+01   1.000000E+01   1.000000E+02   1.000000E+02   1.000000E+02   1.000000E+02   1.000000E+02   1.000000E+02   1.000000E+02   1.000000E+02   1.000000E+02
INTERNAL               1  (83E15.6) -1 #delc                          
   1.000000E+02   1.000000E+02   1.000000E+02   1.000000E+02   1.000000E+02   1.000000E+02   1.000000E+02   1.000000E+02   1.000000E+02   1.000000E+01   1.000000E+01   1.000000E+01   1.000000E+01   1.000000E+01   1.000000E+01   1.000000E+01   1.000000E+01   1.000000E+01   1.000000E+01   1.000000E+01   1.000000E+01   1.000000E+01   1.000000E+01   1.000000E+01   1.000000E+01   1.000000E+01   1.000000E+01   1.000000E+01   1.000000E+01   1.000000E+01   1.000000E+01   1.000000E+01   1.000000E+01   1.000000E+01   1.000000E+01   1.000000E+01   1.000000E+01   1.000000E+01   1.000000E+01   1.000000E+01   1.000000E+01   1.000000E+01   1.000000E+01   1.000000E+01   1.000000E+01   1.000000E+01   1.000000E+01   1.000000E+01   1.000000E+01   1.000000E+01   1.000000E+01   1.000000E+01   1.000000E+01   1.000000E+01   1.000000E+01   1.000000E+01   1.000000E+01   1.000000E+01   1.000000E+01   1.000000E+01   1.000000E+01   1.000000E+01   1.000000E+01   1.000000E+01   1.000000E+01   1.000000E+01   1.000000E+01   1.000000E+01   1.000000E+01   1.000000E+01   1.000000E+01   1.000000E+01   1.000000E+01   1.000000E+01   1.000000E+02   1.000000E+02   1.000000E+02   1.000000E+02   1.000000E+02   1.000000E+02   1.000000E+02   1.000000E+02   1.000000E+02
CONSTANT    0.000000E+00                           #model_top                     
CONSTANT   -2.000000E+00                           #botm layer 1                  
CONSTANT   -8.000000E+00                           #botm layer 2                  
CONSTANT   -1.000000E+01                           #botm layer 3                  
CONSTANT   -1.300000E+01                           #botm layer 4                  
CONSTANT   -2.400000E+01                           #botm layer 5                  
CONSTANT   -2.500000E+01                           #botm layer 6                  
CONSTANT   -5.500000E+01                           #botm layer 7                  
CONSTANT   -5.800000E+01                           #botm layer 8                  
CONSTANT   -6.700000E+01                           #botm layer 9                  
CONSTANT   -6.700000E+01                           #botm layer 10                 
CONSTANT   -8.200000E+01                           #botm layer 11                 
CONSTANT   -8.200000E+01                           #botm layer 12                 
CONSTANT   -9.000000E+01                           #botm layer 13                 
CONSTANT   -9.300000E+01                           #botm layer 14                 
CONSTANT   -1.090000E+02                           #botm layer 15                 
CONSTANT   -1.150000E+02                           #botm layer 16                 
CONSTANT   -1.170000E+02                           #botm layer 17                 
CONSTANT   -1.280000E+02                           #botm layer 18                 
CONSTANT   -1.500000E+02                           #botm layer 19                 
      1.000000             1  1.000000  SS 
    210.000000             7  1.000000  TR 
    150.000000             5  1.000000  TR 
    210.000000             7  1.000000  TR 
    150.000000             5  1.000000  TR 
    210.000000             7  1.000000  TR 
    150.000000             5  1.000000  TR 
    210.000000             7  1.000000  TR 
    150.000000             5  1.000000  TR 
    210.000000             7  1.000000  TR 
    150.000000             5  1.000000  TR 
    210.000000             7  1.000000  TR 
    150.000000             5  1.000000  TR 
    210.000000             7  1.000000  TR 
    150.000000             5  1.000000  TR 
    210.000000             7  1.000000  TR 
    150.000000             5  1.000000  TR 
    210.000000             7  1.000000  TR 
    150.000000             5  1.000000  TR 
    210.000000             7  1.000000  TR 
    150.000000             5  1.000000  TR 
    210.000000             7  1.000000  TR 
    150.000000             5  1.000000  TR 
    210.000000             7  1.000000  TR 
    150.000000             5  1.000000  TR 
    210.000000             7  1.000000  TR 
    150.000000             5  1.000000  TR 
    210.000000             7  1.000000  TR 
    150.000000             5  1.000000  TR 
    210.000000             7  1.000000  TR 
    150.000000             5  1.000000  TR 
    210.000000             7  1.000000  TR 
    150.000000             5  1.000000  TR 
    210.000000             7  1.000000  TR 
    150.000000             5  1.000000  TR 
    210.000000             7  1.000000  TR 
    150.000000             5  1.000000  TR 
    210.000000             7  1.000000  TR 
    150.000000             5  1.000000  TR 
    210.000000             7  1.000000  TR 
    150.000000             5  1.000000  TR 
